Version 4
SHEET 1 1016 680
WIRE 224 -48 192 -48
WIRE 336 -48 304 -48
WIRE 128 48 128 -48
WIRE 128 48 32 48
WIRE 224 48 128 48
WIRE 336 64 336 -48
WIRE 336 64 288 64
WIRE 528 64 336 64
WIRE 224 80 208 80
WIRE 208 208 208 80
WIRE 256 208 208 208
WIRE 448 208 256 208
WIRE 528 208 528 64
WIRE 128 272 128 48
WIRE 256 272 256 208
WIRE 32 288 32 48
WIRE 128 352 32 352
WIRE 192 352 128 352
WIRE 256 352 192 352
FLAG 192 352 0
FLAG 256 32 -10V
IOPIN 256 32 In
FLAG 944 272 0
FLAG 944 192 10v
IOPIN 944 192 Out
FLAG 256 96 10v
IOPIN 256 96 In
FLAG 944 352 -10V
IOPIN 944 352 Out
SYMBOL res 320 -64 R90
WINDOW 0 0 56 VBottom 2
WINDOW 3 32 56 VTop 2
SYMATTR InstName R1
SYMATTR Value 16k
SYMBOL res 144 368 R180
WINDOW 0 36 76 Left 2
WINDOW 3 36 40 Left 2
SYMATTR InstName R2
SYMATTR Value 16k
SYMBOL res 272 368 R180
WINDOW 0 36 76 Left 2
WINDOW 3 36 40 Left 2
SYMATTR InstName R3
SYMATTR Value 47k
SYMBOL res 432 224 R270
WINDOW 0 32 56 VTop 2
WINDOW 3 0 56 VBottom 2
SYMATTR InstName R4
SYMATTR Value 120k
SYMBOL cap 192 -64 R90
WINDOW 0 0 32 VBottom 2
WINDOW 3 32 32 VTop 2
SYMATTR InstName C1
SYMATTR Value 3n
SYMBOL cap 48 352 R180
WINDOW 0 24 56 Left 2
WINDOW 3 24 8 Left 2
SYMATTR InstName C2
SYMATTR Value 3n
SYMBOL voltage 944 176 R0
WINDOW 123 0 0 Left 0
WINDOW 39 0 0 Left 0
SYMATTR InstName V2
SYMATTR Value 10
SYMBOL OpAmps\\OP27 256 128 M180
SYMATTR InstName U1
SYMBOL voltage 944 256 R0
WINDOW 123 0 0 Left 0
WINDOW 39 0 0 Left 0
SYMATTR InstName V1
SYMATTR Value 10
TEXT -210 376 Left 2 !.tran 0 100m 0 0.01 startup
TEXT 184 -128 Left 2 !.ic V(n001)=1m
